       5
 i =        6, time =        3.000, E =        -8.0715742982
  H         5.3857900416        4.0742097705        3.5811120132
  H         3.9199512866        4.7900150110        4.3285090053
  H         5.6002847426        5.6077224621        4.4496425595
  H         5.3479559215        4.1480369706        5.3848299963
  C         5.0220694622        4.6784611518        4.4577943630
       5
 i =        7, time =        3.500, E =        -8.0711045977
  H         5.3848978757        4.0776224380        3.5814113731
  H         3.9208809250        4.7887262191        4.3220837446
  H         5.6114006618        5.6027985800        4.4525980866
  H         5.3547898958        4.1463117535        5.3804926360
  C         5.0205568908        4.6788387910        4.4584233243
       5
 i =        8, time =        4.000, E =        -8.0707608306
  H         5.3835297528        4.0817338403        3.5830596000
  H         3.9234320791        4.7879031911        4.3168681896
  H         5.6214054135        5.5987495057        4.4552276547
  H         5.3599417537        4.1448123874        5.3752072465
  C         5.0191820720        4.6790259231        4.4589444566
       5
 i =        9, time =        4.500, E =        -8.0705194159
  H         5.3817673668        4.0863967978        3.5858600160
  H         3.9273863696        4.7876326936        4.3129364024
  H         5.6300924745        5.5954927653        4.4575136286
  H         5.3633363130        4.1434413688        5.3691425751
  C         5.0179801128        4.6790427107        4.4593553989
       5
 i =       10, time =        5.000, E =        -8.0703422670
  H         5.3797263472        4.0914106472        3.5895251624
  H         3.9324173150        4.7880020164        4.3103298482
  H         5.6372698671        5.5929282695        4.4594480504
  H         5.3649502724        4.1420701065        5.3625404656
  C         5.0169867769        4.6789178539        4.4596571950
